[General]
network = Network
sim-time-limit = 100h
cpu-time-limit = 100s
#debug-on-errors = true
#record-eventlog = true

[Config Sched1]
description = "usual config"

*.nrHP = 2
*.nrMP = 3
*.nrLP =2
Network.user[*].sendIaTime = 0.2 ms


